$DATA1 SOURCE='PrimeSim HSPICE' VERSION='U-2023.03-SP2 linux6' PARAM_COUNT=2
.TITLE '*----------------------------------------------------------------------'
 index            p1               bestratio        tpdr            
                  tpdf             tpd              diff            
                  temper           alter#          
 2                 4.298e-07          1.9539         1.107e-10      
                   7.554e-11        9.314e-11        9.314e-11      
                    25.0000        1               
